9
	Energy:      11.7225213
O         -2.82079        4.29839        4.04847
C         -3.63600        4.49555        4.92063
C         -3.90161        5.81347        5.56210
C         -3.12195        6.77266        5.05510
O         -2.19628        6.54119        4.06260
H         -2.23833        5.57570        3.82952
H         -4.22951        3.65891        5.27624
H         -4.64581        5.94446        6.34433
H         -3.09654        7.81558        5.32691
